LTspice 24.0.9 for Windows
Circuit: * C:\Users\theil\OneDrive\Skrivebord\ESD4-412-Opgaveregning\Analog elektronik\examPrep\Dioder\diodeDet.asc
Start Time: Thu Jun  6 13:38:16 2024
Error on line 8 : v1 vin 0 v
	 Unknown parameter "v"
solver = Normal
Maximum thread count: 12
tnom = 27
temp = 27
method = modified trap
WARNING: Less than two connections to node n001.  This node is used by r3.
v1: Missing value, assumed 0V @ DC
Total elapsed time: 0.206 seconds.

