LTspice 24.0.9 for Windows
Circuit: * C:\Users\Christian Lykke\Documents\Skole\Aalborg Universitet\ESD4\Analog Elektronik\Opgaveregning\kursusgang 9.asc
Start Time: Tue Apr  2 14:57:33 2024
Warning: Multiple definitions of model "2scr375p" Type: BJT
Warning: Multiple definitions of model "bc857b" Type: BJT
Warning: Multiple definitions of model "bc847c" Type: BJT
Warning: Multiple definitions of model "bc847b" Type: BJT
Number of points per decade reduced from 1000000 to 32701.
solver = Normal
Maximum thread count: 8
tnom = 27
temp = 27
method = modified trap
Direct Newton iteration for .op point succeeded.
Total elapsed time: 0.358 seconds.

