LTspice 24.0.9 for Windows
Circuit: * C:\Users\Ditte\aauRepo\esd4\opg\Analog elektronik\examPrep\BJT\classicBJTDesign.asc
Start Time: Wed Jun  5 12:00:19 2024
Warning: Multiple definitions of model "2scr375p" Type: BJT
Warning: Multiple definitions of model "bc857b" Type: BJT
Warning: Multiple definitions of model "bc847c" Type: BJT
Warning: Multiple definitions of model "bc847b" Type: BJT
solver = Normal
Maximum thread count: 16
tnom = 27
temp = 27
method = modified trap
v2: Missing value, assumed 0V @ DC
Direct Newton iteration for .op point succeeded.
Note: .fourier statements are only valid with a .tran command.
      No Fourier analysis performed.

Total elapsed time: 0.119 seconds.

