LTspice 24.0.9 for Windows
Circuit: * C:\Users\theil\OneDrive\Skrivebord\ESD4-412-Opgaveregning\Analog elektronik\Draft1.asc
Start Time: Tue Feb 20 15:14:35 2024
solver = Normal
Maximum thread count: 12
tnom = 27
temp = 27
method = modified trap
.OP point found by inspection.
Total elapsed time: 0.245 seconds.

