LTspice 24.0.9 for Windows
Circuit: * C:\Users\Ditte\aauRepo\esd4\opg\Analog elektronik\examPrep\MOSFET\classicMOSFETinSPICE.asc
Start Time: Thu Jun  6 13:35:59 2024
re1: both pins shorted together -- ignoring.
r_sig1: both pins shorted together -- ignoring.
c_e1: both pins shorted together -- ignoring.
solver = Normal
Maximum thread count: 16
tnom = 27
temp = 27
method = modified trap
Fatal Error: .FRA requires at least one enabled fra device.
