LTspice 24.0.9 for Windows
Circuit: * C:\Users\Ditte\aauRepo\esd4\opg\Analog elektronik\examPrep\MOSFET\Draft1.asc
Start Time: Wed Jun  5 14:25:59 2024
solver = Normal
Maximum thread count: 16
tnom = 27
temp = 27
method = modified trap
Direct Newton iteration for .op point succeeded.
Total elapsed time: 0.112 seconds.

